Version 4
SHEET 1 880 680
WIRE 160 -64 -160 -64
WIRE -160 16 -160 -64
WIRE 256 48 192 48
WIRE 400 48 336 48
WIRE 160 112 160 -64
WIRE 288 112 160 112
WIRE 288 160 288 112
WIRE -16 176 -64 176
WIRE 192 176 192 48
WIRE 192 176 64 176
WIRE 256 176 192 176
WIRE 352 192 320 192
WIRE 400 192 400 48
WIRE 400 192 352 192
WIRE -64 208 -64 176
WIRE 256 208 224 208
WIRE -128 240 -224 240
WIRE 352 256 352 192
WIRE 224 272 224 208
WIRE -224 304 -224 240
WIRE -128 352 -128 240
WIRE 288 352 288 224
WIRE 288 352 -128 352
WIRE 352 384 352 336
FLAG -160 96 0
FLAG -64 288 0
FLAG -224 384 0
FLAG 224 272 0
FLAG 352 384 0
SYMBOL OpAmps\\LT1001 288 128 R0
SYMATTR InstName U1
SYMBOL res 80 160 R90
WINDOW 0 0 56 VBottom 2
WINDOW 3 32 56 VTop 2
SYMATTR InstName R1
SYMATTR Value 110
SYMBOL res 352 32 R90
WINDOW 0 0 56 VBottom 2
WINDOW 3 32 56 VTop 2
SYMATTR InstName R2
SYMATTR Value 220
SYMBOL voltage -64 192 R0
WINDOW 123 0 0 Left 0
WINDOW 39 0 0 Left 0
SYMATTR InstName V1
SYMATTR Value SINE(0 3 200)
SYMBOL voltage -160 0 R0
WINDOW 123 0 0 Left 0
WINDOW 39 0 0 Left 0
SYMATTR InstName V2
SYMATTR Value 15
SYMBOL voltage -224 288 R0
WINDOW 123 0 0 Left 0
WINDOW 39 0 0 Left 0
SYMATTR InstName V3
SYMATTR Value -15
SYMBOL res 336 240 R0
SYMATTR InstName R3
SYMATTR Value 1K
TEXT -256 408 Left 2 !.tran 0 0.05 0 0.05
