Version 4
SHEET 1 880 680
WIRE 304 -80 208 -80
WIRE 640 -80 384 -80
WIRE 496 0 368 0
WIRE 368 32 368 0
WIRE 496 32 496 0
WIRE 48 160 -224 160
WIRE 208 160 208 -80
WIRE 208 160 112 160
WIRE 368 208 368 112
WIRE -224 224 -224 160
WIRE 208 224 208 160
WIRE 336 224 208 224
WIRE 640 240 640 -80
WIRE 640 240 400 240
WIRE 816 240 640 240
WIRE 336 256 208 256
WIRE 368 336 368 272
WIRE 208 384 208 256
FLAG -224 304 0
FLAG 208 384 0
FLAG 368 416 0
FLAG 496 32 0
SYMBOL schottky 48 176 R270
WINDOW 0 32 32 VTop 2
WINDOW 3 0 32 VBottom 2
SYMATTR InstName D1
SYMBOL OpAmps\\UniversalOpamp2 368 240 R0
SYMATTR InstName IC741
SYMBOL voltage 368 320 R0
WINDOW 123 0 0 Left 0
WINDOW 39 0 0 Left 0
SYMATTR InstName V1
SYMATTR Value 5
SYMBOL voltage 368 128 R180
WINDOW 0 24 96 Left 2
WINDOW 3 24 16 Left 2
WINDOW 123 0 0 Left 0
WINDOW 39 0 0 Left 0
SYMATTR InstName V2
SYMATTR Value 5
SYMBOL voltage -224 208 R0
WINDOW 123 0 0 Left 0
WINDOW 39 0 0 Left 0
SYMATTR InstName V3
SYMATTR Value SINE(5 4 1K)
SYMBOL res 400 -96 R90
WINDOW 0 0 56 VBottom 2
WINDOW 3 32 56 VTop 2
SYMATTR InstName R1
SYMATTR Value 4.7K
TEXT -208 344 Left 2 !.tran 0 0.0005 0.00025
