Version 4
SHEET 1 880 680
WIRE 432 -16 224 -16
WIRE 576 -16 512 -16
WIRE 224 128 224 -16
WIRE 576 128 576 -16
WIRE -112 176 -176 176
WIRE 192 176 -32 176
WIRE -176 240 -176 176
WIRE -176 416 -176 320
WIRE 576 416 576 208
WIRE 576 416 -176 416
WIRE 224 560 224 224
FLAG 224 560 0
SYMBOL nmos 176 128 R0
SYMATTR InstName M1
SYMATTR Value IRFZ44N
SYMBOL res 528 -32 R90
WINDOW 0 0 56 VBottom 2
WINDOW 3 32 56 VTop 2
SYMATTR InstName R1
SYMATTR Value 100
SYMBOL voltage 576 112 R0
WINDOW 123 0 0 Left 0
WINDOW 39 0 0 Left 0
SYMATTR InstName VDS
SYMATTR Value 8
SYMBOL res -16 160 R90
WINDOW 0 0 56 VBottom 2
WINDOW 3 32 56 VTop 2
SYMATTR InstName R2
SYMATTR Value 1K
SYMBOL voltage -176 224 R0
WINDOW 3 24 44 Left 2
WINDOW 123 0 0 Left 0
WINDOW 39 0 0 Left 0
SYMATTR InstName VGS
SYMATTR Value SINE(0 0.5 10000)
TEXT -152 368 Left 2 !.dc VGS 0 11 0.5
