Version 4
SHEET 1 880 680
WIRE 192 0 0 0
WIRE 336 0 256 0
WIRE 416 0 336 0
WIRE 336 96 336 0
WIRE 0 112 0 0
WIRE 416 112 416 0
WIRE 0 272 0 192
WIRE 336 272 336 160
WIRE 336 272 0 272
WIRE 416 272 416 192
WIRE 416 272 336 272
WIRE 416 288 416 272
FLAG 416 288 0
SYMBOL voltage 0 96 R0
WINDOW 123 0 0 Left 0
WINDOW 39 0 0 Left 0
SYMATTR InstName V1
SYMATTR Value SINE(0 1 100)
SYMBOL diode 192 16 R270
WINDOW 0 32 32 VTop 2
WINDOW 3 0 32 VBottom 2
SYMATTR InstName D1
SYMBOL res 400 96 R0
SYMATTR InstName R1
SYMATTR Value 10K
SYMBOL cap 320 96 R0
SYMATTR InstName C1
SYMATTR Value 1µ
TEXT 168 296 Left 2 !.tran 0.05
